<routes>
        <vType id="typeCar" accel="0.8" decel="4.5" sigma="0.5" length="5" minGap="2.5" maxSpeed="16.67" guiShape="passenger"/>

        <route id="NS" edges="n2A A2s" />
        <route id="WE" edges="w2A A2e" />
        <route id="SN" edges="s2A A2n" />
        <route id="EW" edges="e2A A2w" />
    <vehicle id="car_0" type="typeCar" route="SN" depart="0"/>
    <vehicle id="car_1" type="typeCar" route="EW" depart="1"/>
    <vehicle id="car_2" type="typeCar" route="SN" depart="2"/>
    <vehicle id="car_3" type="typeCar" route="NS" depart="3"/>
    <vehicle id="car_4" type="typeCar" route="EW" depart="4"/>
    <vehicle id="car_5" type="typeCar" route="WE" depart="6"/>
    <vehicle id="car_6" type="typeCar" route="EW" depart="6"/>
    <vehicle id="car_7" type="typeCar" route="SN" depart="10"/>
    <vehicle id="car_8" type="typeCar" route="NS" depart="11"/>
    <vehicle id="car_9" type="typeCar" route="WE" depart="11"/>
    <vehicle id="car_10" type="typeCar" route="EW" depart="16"/>
    <vehicle id="car_11" type="typeCar" route="NS" depart="22"/>
    <vehicle id="car_12" type="typeCar" route="SN" depart="22"/>
    <vehicle id="car_13" type="typeCar" route="WE" depart="22"/>
    <vehicle id="car_14" type="typeCar" route="WE" depart="23"/>
    <vehicle id="car_15" type="typeCar" route="NS" depart="25"/>
    <vehicle id="car_16" type="typeCar" route="WE" depart="26"/>
    <vehicle id="car_17" type="typeCar" route="NS" depart="31"/>
    <vehicle id="car_18" type="typeCar" route="WE" depart="31"/>
    <vehicle id="car_19" type="typeCar" route="EW" depart="32"/>
    <vehicle id="car_20" type="typeCar" route="WE" depart="33"/>
    <vehicle id="car_21" type="typeCar" route="NS" depart="34"/>
    <vehicle id="car_22" type="typeCar" route="EW" depart="34"/>
    <vehicle id="car_23" type="typeCar" route="WE" depart="38"/>
    <vehicle id="car_24" type="typeCar" route="NS" depart="40"/>
    <vehicle id="car_25" type="typeCar" route="NS" depart="44"/>
    <vehicle id="car_26" type="typeCar" route="EW" depart="45"/>
    <vehicle id="car_27" type="typeCar" route="EW" depart="51"/>
    <vehicle id="car_28" type="typeCar" route="NS" depart="56"/>
    <vehicle id="car_29" type="typeCar" route="WE" depart="57"/>
    <vehicle id="car_30" type="typeCar" route="EW" depart="58"/>
    <vehicle id="car_31" type="typeCar" route="NS" depart="63"/>
    <vehicle id="car_32" type="typeCar" route="NS" depart="64"/>
    <vehicle id="car_33" type="typeCar" route="SN" depart="67"/>
    <vehicle id="car_34" type="typeCar" route="WE" depart="68"/>
    <vehicle id="car_35" type="typeCar" route="EW" depart="68"/>
    <vehicle id="car_36" type="typeCar" route="EW" depart="71"/>
    <vehicle id="car_37" type="typeCar" route="WE" depart="72"/>
    <vehicle id="car_38" type="typeCar" route="SN" depart="74"/>
    <vehicle id="car_39" type="typeCar" route="WE" depart="74"/>
    <vehicle id="car_40" type="typeCar" route="NS" depart="81"/>
    <vehicle id="car_41" type="typeCar" route="WE" depart="85"/>
    <vehicle id="car_42" type="typeCar" route="WE" depart="89"/>
    <vehicle id="car_43" type="typeCar" route="NS" depart="92"/>
    <vehicle id="car_44" type="typeCar" route="EW" depart="93"/>
    <vehicle id="car_45" type="typeCar" route="WE" depart="96"/>
    <vehicle id="car_46" type="typeCar" route="WE" depart="98"/>
    <vehicle id="car_47" type="typeCar" route="WE" depart="101"/>
    <vehicle id="car_48" type="typeCar" route="EW" depart="103"/>
    <vehicle id="car_49" type="typeCar" route="EW" depart="104"/>
    <vehicle id="car_50" type="typeCar" route="EW" depart="106"/>
    <vehicle id="car_51" type="typeCar" route="WE" depart="107"/>
    <vehicle id="car_52" type="typeCar" route="EW" depart="108"/>
    <vehicle id="car_53" type="typeCar" route="NS" depart="115"/>
    <vehicle id="car_54" type="typeCar" route="SN" depart="120"/>
    <vehicle id="car_55" type="typeCar" route="SN" depart="123"/>
    <vehicle id="car_56" type="typeCar" route="EW" depart="124"/>
    <vehicle id="car_57" type="typeCar" route="SN" depart="125"/>
    <vehicle id="car_58" type="typeCar" route="NS" depart="126"/>
    <vehicle id="car_59" type="typeCar" route="WE" depart="126"/>
    <vehicle id="car_60" type="typeCar" route="NS" depart="127"/>
    <vehicle id="car_61" type="typeCar" route="WE" depart="129"/>
    <vehicle id="car_62" type="typeCar" route="NS" depart="132"/>
    <vehicle id="car_63" type="typeCar" route="WE" depart="132"/>
    <vehicle id="car_64" type="typeCar" route="EW" depart="134"/>
    <vehicle id="car_65" type="typeCar" route="WE" depart="135"/>
    <vehicle id="car_66" type="typeCar" route="EW" depart="135"/>
    <vehicle id="car_67" type="typeCar" route="WE" depart="141"/>
    <vehicle id="car_68" type="typeCar" route="EW" depart="145"/>
    <vehicle id="car_69" type="typeCar" route="SN" depart="147"/>
    <vehicle id="car_70" type="typeCar" route="WE" depart="149"/>
    <vehicle id="car_71" type="typeCar" route="NS" depart="150"/>
    <vehicle id="car_72" type="typeCar" route="NS" depart="152"/>
    <vehicle id="car_73" type="typeCar" route="EW" depart="155"/>
    <vehicle id="car_74" type="typeCar" route="SN" depart="159"/>
    <vehicle id="car_75" type="typeCar" route="EW" depart="160"/>
    <vehicle id="car_76" type="typeCar" route="EW" depart="162"/>
    <vehicle id="car_77" type="typeCar" route="NS" depart="164"/>
    <vehicle id="car_78" type="typeCar" route="WE" depart="164"/>
    <vehicle id="car_79" type="typeCar" route="EW" depart="164"/>
    <vehicle id="car_80" type="typeCar" route="EW" depart="165"/>
    <vehicle id="car_81" type="typeCar" route="EW" depart="170"/>
    <vehicle id="car_82" type="typeCar" route="NS" depart="171"/>
    <vehicle id="car_83" type="typeCar" route="EW" depart="175"/>
    <vehicle id="car_84" type="typeCar" route="EW" depart="178"/>
    <vehicle id="car_85" type="typeCar" route="NS" depart="179"/>
    <vehicle id="car_86" type="typeCar" route="NS" depart="180"/>
    <vehicle id="car_87" type="typeCar" route="NS" depart="182"/>
    <vehicle id="car_88" type="typeCar" route="EW" depart="193"/>
    <vehicle id="car_89" type="typeCar" route="EW" depart="194"/>
    <vehicle id="car_90" type="typeCar" route="SN" depart="204"/>
    <vehicle id="car_91" type="typeCar" route="WE" depart="206"/>
    <vehicle id="car_92" type="typeCar" route="EW" depart="212"/>
    <vehicle id="car_93" type="typeCar" route="NS" depart="213"/>
    <vehicle id="car_94" type="typeCar" route="WE" depart="214"/>
    <vehicle id="car_95" type="typeCar" route="NS" depart="216"/>
    <vehicle id="car_96" type="typeCar" route="WE" depart="219"/>
    <vehicle id="car_97" type="typeCar" route="WE" depart="220"/>
    <vehicle id="car_98" type="typeCar" route="NS" depart="227"/>
    <vehicle id="car_99" type="typeCar" route="EW" depart="236"/>
    <vehicle id="car_100" type="typeCar" route="NS" depart="239"/>
    <vehicle id="car_101" type="typeCar" route="WE" depart="241"/>
    <vehicle id="car_102" type="typeCar" route="EW" depart="242"/>
    <vehicle id="car_103" type="typeCar" route="NS" depart="245"/>
    <vehicle id="car_104" type="typeCar" route="WE" depart="245"/>
    <vehicle id="car_105" type="typeCar" route="EW" depart="247"/>
    <vehicle id="car_106" type="typeCar" route="EW" depart="248"/>
    <vehicle id="car_107" type="typeCar" route="NS" depart="250"/>
    <vehicle id="car_108" type="typeCar" route="EW" depart="251"/>
    <vehicle id="car_109" type="typeCar" route="SN" depart="253"/>
    <vehicle id="car_110" type="typeCar" route="WE" depart="254"/>
    <vehicle id="car_111" type="typeCar" route="WE" depart="256"/>
    <vehicle id="car_112" type="typeCar" route="SN" depart="258"/>
    <vehicle id="car_113" type="typeCar" route="WE" depart="258"/>
    <vehicle id="car_114" type="typeCar" route="EW" depart="259"/>
    <vehicle id="car_115" type="typeCar" route="WE" depart="261"/>
    <vehicle id="car_116" type="typeCar" route="SN" depart="262"/>
    <vehicle id="car_117" type="typeCar" route="EW" depart="263"/>
    <vehicle id="car_118" type="typeCar" route="WE" depart="265"/>
    <vehicle id="car_119" type="typeCar" route="NS" depart="266"/>
    <vehicle id="car_120" type="typeCar" route="EW" depart="272"/>
    <vehicle id="car_121" type="typeCar" route="WE" depart="273"/>
    <vehicle id="car_122" type="typeCar" route="WE" depart="278"/>
    <vehicle id="car_123" type="typeCar" route="SN" depart="281"/>
    <vehicle id="car_124" type="typeCar" route="SN" depart="283"/>
    <vehicle id="car_125" type="typeCar" route="EW" depart="284"/>
    <vehicle id="car_126" type="typeCar" route="NS" depart="287"/>
    <vehicle id="car_127" type="typeCar" route="EW" depart="289"/>
    <vehicle id="car_128" type="typeCar" route="SN" depart="291"/>
    <vehicle id="car_129" type="typeCar" route="NS" depart="292"/>
    <vehicle id="car_130" type="typeCar" route="EW" depart="292"/>
    <vehicle id="car_131" type="typeCar" route="WE" depart="293"/>
    <vehicle id="car_132" type="typeCar" route="WE" depart="295"/>
    <vehicle id="car_133" type="typeCar" route="NS" depart="296"/>
    <vehicle id="car_134" type="typeCar" route="SN" depart="296"/>
    <vehicle id="car_135" type="typeCar" route="SN" depart="298"/>
    <vehicle id="car_136" type="typeCar" route="EW" depart="299"/>
    <vehicle id="car_137" type="typeCar" route="WE" depart="302"/>
    <vehicle id="car_138" type="typeCar" route="WE" depart="304"/>
    <vehicle id="car_139" type="typeCar" route="NS" depart="309"/>
    <vehicle id="car_140" type="typeCar" route="NS" depart="310"/>
    <vehicle id="car_141" type="typeCar" route="NS" depart="311"/>
    <vehicle id="car_142" type="typeCar" route="WE" depart="311"/>
    <vehicle id="car_143" type="typeCar" route="WE" depart="315"/>
    <vehicle id="car_144" type="typeCar" route="NS" depart="320"/>
    <vehicle id="car_145" type="typeCar" route="WE" depart="322"/>
    <vehicle id="car_146" type="typeCar" route="EW" depart="328"/>
    <vehicle id="car_147" type="typeCar" route="NS" depart="329"/>
    <vehicle id="car_148" type="typeCar" route="WE" depart="329"/>
    <vehicle id="car_149" type="typeCar" route="WE" depart="330"/>
    <vehicle id="car_150" type="typeCar" route="EW" depart="338"/>
    <vehicle id="car_151" type="typeCar" route="EW" depart="341"/>
    <vehicle id="car_152" type="typeCar" route="SN" depart="343"/>
    <vehicle id="car_153" type="typeCar" route="WE" depart="343"/>
    <vehicle id="car_154" type="typeCar" route="EW" depart="344"/>
    <vehicle id="car_155" type="typeCar" route="EW" depart="347"/>
    <vehicle id="car_156" type="typeCar" route="NS" depart="348"/>
    <vehicle id="car_157" type="typeCar" route="WE" depart="349"/>
    <vehicle id="car_158" type="typeCar" route="SN" depart="350"/>
    <vehicle id="car_159" type="typeCar" route="NS" depart="352"/>
    <vehicle id="car_160" type="typeCar" route="EW" depart="352"/>
    <vehicle id="car_161" type="typeCar" route="EW" depart="354"/>
    <vehicle id="car_162" type="typeCar" route="SN" depart="357"/>
    <vehicle id="car_163" type="typeCar" route="SN" depart="359"/>
    <vehicle id="car_164" type="typeCar" route="WE" depart="361"/>
    <vehicle id="car_165" type="typeCar" route="WE" depart="362"/>
    <vehicle id="car_166" type="typeCar" route="NS" depart="363"/>
    <vehicle id="car_167" type="typeCar" route="WE" depart="370"/>
    <vehicle id="car_168" type="typeCar" route="SN" depart="372"/>
    <vehicle id="car_169" type="typeCar" route="NS" depart="374"/>
    <vehicle id="car_170" type="typeCar" route="WE" depart="375"/>
    <vehicle id="car_171" type="typeCar" route="SN" depart="376"/>
    <vehicle id="car_172" type="typeCar" route="WE" depart="376"/>
    <vehicle id="car_173" type="typeCar" route="WE" depart="384"/>
    <vehicle id="car_174" type="typeCar" route="EW" depart="385"/>
    <vehicle id="car_175" type="typeCar" route="WE" depart="388"/>
    <vehicle id="car_176" type="typeCar" route="NS" depart="389"/>
    <vehicle id="car_177" type="typeCar" route="WE" depart="390"/>
    <vehicle id="car_178" type="typeCar" route="WE" depart="395"/>
    <vehicle id="car_179" type="typeCar" route="EW" depart="395"/>
    <vehicle id="car_180" type="typeCar" route="EW" depart="398"/>
    <vehicle id="car_181" type="typeCar" route="NS" depart="402"/>
    <vehicle id="car_182" type="typeCar" route="SN" depart="402"/>
    <vehicle id="car_183" type="typeCar" route="NS" depart="406"/>
    <vehicle id="car_184" type="typeCar" route="EW" depart="408"/>
    <vehicle id="car_185" type="typeCar" route="WE" depart="410"/>
    <vehicle id="car_186" type="typeCar" route="SN" depart="414"/>
    <vehicle id="car_187" type="typeCar" route="EW" depart="415"/>
    <vehicle id="car_188" type="typeCar" route="EW" depart="419"/>
    <vehicle id="car_189" type="typeCar" route="EW" depart="423"/>
    <vehicle id="car_190" type="typeCar" route="SN" depart="430"/>
    <vehicle id="car_191" type="typeCar" route="EW" depart="433"/>
    <vehicle id="car_192" type="typeCar" route="WE" depart="434"/>
    <vehicle id="car_193" type="typeCar" route="EW" depart="436"/>
    <vehicle id="car_194" type="typeCar" route="EW" depart="448"/>
    <vehicle id="car_195" type="typeCar" route="WE" depart="450"/>
    <vehicle id="car_196" type="typeCar" route="EW" depart="451"/>
    <vehicle id="car_197" type="typeCar" route="EW" depart="454"/>
    <vehicle id="car_198" type="typeCar" route="NS" depart="459"/>
    <vehicle id="car_199" type="typeCar" route="WE" depart="459"/>
    <vehicle id="car_200" type="typeCar" route="WE" depart="465"/>
    <vehicle id="car_201" type="typeCar" route="WE" depart="468"/>
    <vehicle id="car_202" type="typeCar" route="WE" depart="469"/>
    <vehicle id="car_203" type="typeCar" route="WE" depart="472"/>
    <vehicle id="car_204" type="typeCar" route="EW" depart="475"/>
    <vehicle id="car_205" type="typeCar" route="WE" depart="476"/>
    <vehicle id="car_206" type="typeCar" route="NS" depart="477"/>
    <vehicle id="car_207" type="typeCar" route="EW" depart="478"/>
    <vehicle id="car_208" type="typeCar" route="WE" depart="479"/>
    <vehicle id="car_209" type="typeCar" route="NS" depart="481"/>
    <vehicle id="car_210" type="typeCar" route="NS" depart="483"/>
    <vehicle id="car_211" type="typeCar" route="WE" depart="483"/>
    <vehicle id="car_212" type="typeCar" route="EW" depart="484"/>
    <vehicle id="car_213" type="typeCar" route="SN" depart="490"/>
    <vehicle id="car_214" type="typeCar" route="WE" depart="490"/>
    <vehicle id="car_215" type="typeCar" route="WE" depart="494"/>
    <vehicle id="car_216" type="typeCar" route="SN" depart="495"/>
    <vehicle id="car_217" type="typeCar" route="NS" depart="496"/>
    <vehicle id="car_218" type="typeCar" route="WE" depart="497"/>
    <vehicle id="car_219" type="typeCar" route="NS" depart="501"/>
    <vehicle id="car_220" type="typeCar" route="EW" depart="508"/>
    <vehicle id="car_221" type="typeCar" route="WE" depart="512"/>
    <vehicle id="car_222" type="typeCar" route="NS" depart="517"/>
    <vehicle id="car_223" type="typeCar" route="WE" depart="525"/>
    <vehicle id="car_224" type="typeCar" route="EW" depart="525"/>
    <vehicle id="car_225" type="typeCar" route="NS" depart="528"/>
    <vehicle id="car_226" type="typeCar" route="NS" depart="530"/>
    <vehicle id="car_227" type="typeCar" route="WE" depart="530"/>
    <vehicle id="car_228" type="typeCar" route="WE" depart="531"/>
    <vehicle id="car_229" type="typeCar" route="EW" depart="532"/>
    <vehicle id="car_230" type="typeCar" route="NS" depart="533"/>
    <vehicle id="car_231" type="typeCar" route="NS" depart="538"/>
    <vehicle id="car_232" type="typeCar" route="SN" depart="538"/>
    <vehicle id="car_233" type="typeCar" route="NS" depart="540"/>
    <vehicle id="car_234" type="typeCar" route="WE" depart="540"/>
    <vehicle id="car_235" type="typeCar" route="EW" depart="541"/>
    <vehicle id="car_236" type="typeCar" route="NS" depart="542"/>
    <vehicle id="car_237" type="typeCar" route="NS" depart="543"/>
    <vehicle id="car_238" type="typeCar" route="NS" depart="545"/>
    <vehicle id="car_239" type="typeCar" route="SN" depart="550"/>
    <vehicle id="car_240" type="typeCar" route="WE" depart="552"/>
    <vehicle id="car_241" type="typeCar" route="WE" depart="553"/>
    <vehicle id="car_242" type="typeCar" route="SN" depart="555"/>
    <vehicle id="car_243" type="typeCar" route="WE" depart="557"/>
    <vehicle id="car_244" type="typeCar" route="NS" depart="558"/>
    <vehicle id="car_245" type="typeCar" route="WE" depart="559"/>
    <vehicle id="car_246" type="typeCar" route="NS" depart="562"/>
    <vehicle id="car_247" type="typeCar" route="NS" depart="563"/>
    <vehicle id="car_248" type="typeCar" route="WE" depart="564"/>
    <vehicle id="car_249" type="typeCar" route="WE" depart="579"/>
    <vehicle id="car_250" type="typeCar" route="EW" depart="580"/>
    <vehicle id="car_251" type="typeCar" route="WE" depart="582"/>
    <vehicle id="car_252" type="typeCar" route="WE" depart="585"/>
    <vehicle id="car_253" type="typeCar" route="EW" depart="585"/>
    <vehicle id="car_254" type="typeCar" route="WE" depart="586"/>
    <vehicle id="car_255" type="typeCar" route="EW" depart="589"/>
    <vehicle id="car_256" type="typeCar" route="EW" depart="593"/>
    <vehicle id="car_257" type="typeCar" route="NS" depart="596"/>
    <vehicle id="car_258" type="typeCar" route="NS" depart="601"/>
    <vehicle id="car_259" type="typeCar" route="WE" depart="601"/>
    <vehicle id="car_260" type="typeCar" route="NS" depart="606"/>
    <vehicle id="car_261" type="typeCar" route="WE" depart="606"/>
    <vehicle id="car_262" type="typeCar" route="EW" depart="606"/>
    <vehicle id="car_263" type="typeCar" route="NS" depart="609"/>
    <vehicle id="car_264" type="typeCar" route="SN" depart="609"/>
    <vehicle id="car_265" type="typeCar" route="EW" depart="611"/>
    <vehicle id="car_266" type="typeCar" route="SN" depart="613"/>
    <vehicle id="car_267" type="typeCar" route="EW" depart="618"/>
    <vehicle id="car_268" type="typeCar" route="WE" depart="619"/>
    <vehicle id="car_269" type="typeCar" route="EW" depart="623"/>
    <vehicle id="car_270" type="typeCar" route="NS" depart="629"/>
    <vehicle id="car_271" type="typeCar" route="EW" depart="630"/>
    <vehicle id="car_272" type="typeCar" route="NS" depart="634"/>
    <vehicle id="car_273" type="typeCar" route="EW" depart="635"/>
    <vehicle id="car_274" type="typeCar" route="EW" depart="636"/>
    <vehicle id="car_275" type="typeCar" route="EW" depart="640"/>
    <vehicle id="car_276" type="typeCar" route="NS" depart="642"/>
    <vehicle id="car_277" type="typeCar" route="WE" depart="643"/>
    <vehicle id="car_278" type="typeCar" route="EW" depart="645"/>
    <vehicle id="car_279" type="typeCar" route="EW" depart="646"/>
    <vehicle id="car_280" type="typeCar" route="NS" depart="649"/>
    <vehicle id="car_281" type="typeCar" route="EW" depart="650"/>
    <vehicle id="car_282" type="typeCar" route="WE" depart="654"/>
    <vehicle id="car_283" type="typeCar" route="WE" depart="655"/>
    <vehicle id="car_284" type="typeCar" route="SN" depart="659"/>
    <vehicle id="car_285" type="typeCar" route="WE" depart="659"/>
    <vehicle id="car_286" type="typeCar" route="NS" depart="660"/>
    <vehicle id="car_287" type="typeCar" route="NS" depart="662"/>
    <vehicle id="car_288" type="typeCar" route="WE" depart="666"/>
    <vehicle id="car_289" type="typeCar" route="WE" depart="670"/>
    <vehicle id="car_290" type="typeCar" route="EW" depart="671"/>
    <vehicle id="car_291" type="typeCar" route="WE" depart="672"/>
    <vehicle id="car_292" type="typeCar" route="SN" depart="676"/>
    <vehicle id="car_293" type="typeCar" route="EW" depart="683"/>
    <vehicle id="car_294" type="typeCar" route="NS" depart="687"/>
    <vehicle id="car_295" type="typeCar" route="EW" depart="688"/>
    <vehicle id="car_296" type="typeCar" route="EW" depart="689"/>
    <vehicle id="car_297" type="typeCar" route="EW" depart="690"/>
    <vehicle id="car_298" type="typeCar" route="WE" depart="691"/>
    <vehicle id="car_299" type="typeCar" route="WE" depart="693"/>
    <vehicle id="car_300" type="typeCar" route="EW" depart="693"/>
    <vehicle id="car_301" type="typeCar" route="WE" depart="700"/>
    <vehicle id="car_302" type="typeCar" route="EW" depart="701"/>
    <vehicle id="car_303" type="typeCar" route="WE" depart="702"/>
    <vehicle id="car_304" type="typeCar" route="SN" depart="704"/>
    <vehicle id="car_305" type="typeCar" route="SN" depart="706"/>
    <vehicle id="car_306" type="typeCar" route="NS" depart="709"/>
    <vehicle id="car_307" type="typeCar" route="NS" depart="711"/>
    <vehicle id="car_308" type="typeCar" route="WE" depart="712"/>
    <vehicle id="car_309" type="typeCar" route="SN" depart="714"/>
    <vehicle id="car_310" type="typeCar" route="EW" depart="715"/>
    <vehicle id="car_311" type="typeCar" route="EW" depart="722"/>
    <vehicle id="car_312" type="typeCar" route="NS" depart="724"/>
    <vehicle id="car_313" type="typeCar" route="SN" depart="727"/>
    <vehicle id="car_314" type="typeCar" route="NS" depart="730"/>
    <vehicle id="car_315" type="typeCar" route="NS" depart="731"/>
    <vehicle id="car_316" type="typeCar" route="EW" depart="731"/>
    <vehicle id="car_317" type="typeCar" route="NS" depart="733"/>
    <vehicle id="car_318" type="typeCar" route="WE" depart="735"/>
    <vehicle id="car_319" type="typeCar" route="EW" depart="741"/>
    <vehicle id="car_320" type="typeCar" route="WE" depart="743"/>
    <vehicle id="car_321" type="typeCar" route="NS" depart="745"/>
    <vehicle id="car_322" type="typeCar" route="EW" depart="746"/>
    <vehicle id="car_323" type="typeCar" route="WE" depart="747"/>
    <vehicle id="car_324" type="typeCar" route="WE" depart="749"/>
    <vehicle id="car_325" type="typeCar" route="NS" depart="751"/>
    <vehicle id="car_326" type="typeCar" route="EW" depart="753"/>
    <vehicle id="car_327" type="typeCar" route="EW" depart="754"/>
    <vehicle id="car_328" type="typeCar" route="SN" depart="758"/>
    <vehicle id="car_329" type="typeCar" route="EW" depart="760"/>
    <vehicle id="car_330" type="typeCar" route="WE" depart="761"/>
    <vehicle id="car_331" type="typeCar" route="NS" depart="763"/>
    <vehicle id="car_332" type="typeCar" route="WE" depart="765"/>
    <vehicle id="car_333" type="typeCar" route="EW" depart="769"/>
    <vehicle id="car_334" type="typeCar" route="EW" depart="771"/>
    <vehicle id="car_335" type="typeCar" route="EW" depart="775"/>
    <vehicle id="car_336" type="typeCar" route="EW" depart="778"/>
    <vehicle id="car_337" type="typeCar" route="SN" depart="782"/>
    <vehicle id="car_338" type="typeCar" route="EW" depart="782"/>
    <vehicle id="car_339" type="typeCar" route="WE" depart="783"/>
    <vehicle id="car_340" type="typeCar" route="SN" depart="785"/>
    <vehicle id="car_341" type="typeCar" route="EW" depart="786"/>
    <vehicle id="car_342" type="typeCar" route="EW" depart="791"/>
    <vehicle id="car_343" type="typeCar" route="WE" depart="792"/>
    <vehicle id="car_344" type="typeCar" route="WE" depart="795"/>
    <vehicle id="car_345" type="typeCar" route="EW" depart="795"/>
    <vehicle id="car_346" type="typeCar" route="NS" depart="801"/>
    <vehicle id="car_347" type="typeCar" route="EW" depart="801"/>
    <vehicle id="car_348" type="typeCar" route="EW" depart="802"/>
    <vehicle id="car_349" type="typeCar" route="WE" depart="808"/>
    <vehicle id="car_350" type="typeCar" route="WE" depart="810"/>
    <vehicle id="car_351" type="typeCar" route="NS" depart="814"/>
    <vehicle id="car_352" type="typeCar" route="EW" depart="817"/>
    <vehicle id="car_353" type="typeCar" route="EW" depart="819"/>
    <vehicle id="car_354" type="typeCar" route="NS" depart="823"/>
    <vehicle id="car_355" type="typeCar" route="WE" depart="824"/>
    <vehicle id="car_356" type="typeCar" route="SN" depart="828"/>
    <vehicle id="car_357" type="typeCar" route="NS" depart="830"/>
    <vehicle id="car_358" type="typeCar" route="WE" depart="831"/>
    <vehicle id="car_359" type="typeCar" route="SN" depart="832"/>
    <vehicle id="car_360" type="typeCar" route="WE" depart="834"/>
    <vehicle id="car_361" type="typeCar" route="EW" depart="839"/>
    <vehicle id="car_362" type="typeCar" route="SN" depart="841"/>
    <vehicle id="car_363" type="typeCar" route="SN" depart="842"/>
    <vehicle id="car_364" type="typeCar" route="SN" depart="843"/>
    <vehicle id="car_365" type="typeCar" route="EW" depart="846"/>
    <vehicle id="car_366" type="typeCar" route="EW" depart="847"/>
    <vehicle id="car_367" type="typeCar" route="SN" depart="850"/>
    <vehicle id="car_368" type="typeCar" route="WE" depart="851"/>
    <vehicle id="car_369" type="typeCar" route="EW" depart="852"/>
    <vehicle id="car_370" type="typeCar" route="NS" depart="853"/>
    <vehicle id="car_371" type="typeCar" route="EW" depart="853"/>
    <vehicle id="car_372" type="typeCar" route="EW" depart="855"/>
    <vehicle id="car_373" type="typeCar" route="NS" depart="857"/>
    <vehicle id="car_374" type="typeCar" route="WE" depart="857"/>
    <vehicle id="car_375" type="typeCar" route="WE" depart="859"/>
    <vehicle id="car_376" type="typeCar" route="EW" depart="862"/>
    <vehicle id="car_377" type="typeCar" route="SN" depart="865"/>
    <vehicle id="car_378" type="typeCar" route="EW" depart="866"/>
    <vehicle id="car_379" type="typeCar" route="SN" depart="867"/>
    <vehicle id="car_380" type="typeCar" route="WE" depart="870"/>
    <vehicle id="car_381" type="typeCar" route="EW" depart="872"/>
    <vehicle id="car_382" type="typeCar" route="EW" depart="877"/>
    <vehicle id="car_383" type="typeCar" route="WE" depart="878"/>
    <vehicle id="car_384" type="typeCar" route="SN" depart="879"/>
    <vehicle id="car_385" type="typeCar" route="WE" depart="879"/>
    <vehicle id="car_386" type="typeCar" route="EW" depart="881"/>
    <vehicle id="car_387" type="typeCar" route="EW" depart="883"/>
    <vehicle id="car_388" type="typeCar" route="NS" depart="886"/>
    <vehicle id="car_389" type="typeCar" route="WE" depart="886"/>
    <vehicle id="car_390" type="typeCar" route="WE" depart="891"/>
    <vehicle id="car_391" type="typeCar" route="SN" depart="892"/>
    <vehicle id="car_392" type="typeCar" route="WE" depart="894"/>
    <vehicle id="car_393" type="typeCar" route="EW" depart="897"/>
    <vehicle id="car_394" type="typeCar" route="NS" depart="906"/>
    <vehicle id="car_395" type="typeCar" route="NS" depart="909"/>
    <vehicle id="car_396" type="typeCar" route="WE" depart="909"/>
    <vehicle id="car_397" type="typeCar" route="EW" depart="913"/>
    <vehicle id="car_398" type="typeCar" route="WE" depart="919"/>
    <vehicle id="car_399" type="typeCar" route="WE" depart="921"/>
    <vehicle id="car_400" type="typeCar" route="NS" depart="928"/>
    <vehicle id="car_401" type="typeCar" route="EW" depart="932"/>
    <vehicle id="car_402" type="typeCar" route="EW" depart="934"/>
    <vehicle id="car_403" type="typeCar" route="NS" depart="935"/>
    <vehicle id="car_404" type="typeCar" route="NS" depart="939"/>
    <vehicle id="car_405" type="typeCar" route="WE" depart="941"/>
    <vehicle id="car_406" type="typeCar" route="WE" depart="943"/>
    <vehicle id="car_407" type="typeCar" route="EW" depart="944"/>
    <vehicle id="car_408" type="typeCar" route="WE" depart="946"/>
    <vehicle id="car_409" type="typeCar" route="EW" depart="947"/>
    <vehicle id="car_410" type="typeCar" route="SN" depart="950"/>
    <vehicle id="car_411" type="typeCar" route="WE" depart="956"/>
    <vehicle id="car_412" type="typeCar" route="WE" depart="957"/>
    <vehicle id="car_413" type="typeCar" route="NS" depart="961"/>
    <vehicle id="car_414" type="typeCar" route="WE" depart="962"/>
    <vehicle id="car_415" type="typeCar" route="WE" depart="966"/>
    <vehicle id="car_416" type="typeCar" route="EW" depart="966"/>
    <vehicle id="car_417" type="typeCar" route="SN" depart="967"/>
    <vehicle id="car_418" type="typeCar" route="NS" depart="976"/>
    <vehicle id="car_419" type="typeCar" route="WE" depart="976"/>
    <vehicle id="car_420" type="typeCar" route="NS" depart="978"/>
    <vehicle id="car_421" type="typeCar" route="WE" depart="984"/>
    <vehicle id="car_422" type="typeCar" route="SN" depart="988"/>
    <vehicle id="car_423" type="typeCar" route="WE" depart="988"/>
    <vehicle id="car_424" type="typeCar" route="WE" depart="989"/>
    <vehicle id="car_425" type="typeCar" route="NS" depart="990"/>
    <vehicle id="car_426" type="typeCar" route="WE" depart="991"/>
    <vehicle id="car_427" type="typeCar" route="WE" depart="992"/>
    <vehicle id="car_428" type="typeCar" route="WE" depart="998"/>
    <vehicle id="car_429" type="typeCar" route="SN" depart="999"/>
</routes>
